* RC low-pass filter — Docker smoke test
R1 in out 1k
C1 out 0 1n
V1 in 0 AC 1
.ac dec 10 1k 1G
.meas ac bw_3db when vdb(out)=-3
.backanno
.end
