* RC low-pass filter -- AC analysis
V1 in 0 AC 1
R1 in out 1k
C1 out 1n
.ac dec 20 1 1G
.meas ac bw_3db WHEN vdb(out)=-3
.end
